LTspice 24.0.12 for Windows
Circuit: part_a.end
Start Time: Tue Dec 10 16:04:43 2024
solver = Normal
Maximum thread count: 16
tnom = 27
temp = 27
method = modified trap
Model "nmos0p18": Oxide thickness thinner than recommended for a level 1 MOSFET.
Instance "m1": Length shorter than recommended for a level 1 MOSFET.
Instance "m1": Width narrower than recommended for a level 1 MOSFET.
Model "pmos0p18": Oxide thickness thinner than recommended for a level 1 MOSFET.
Instance "m2": Length shorter than recommended for a level 1 MOSFET.
Instance "m2": Width narrower than recommended for a level 1 MOSFET.
Total elapsed time: 0.019 seconds.

