LTspice 24.0.12 for Windows
Circuit: part_a.end
Start Time: Tue Dec 10 17:39:17 2024
solver = Normal
Maximum thread count: 16
tnom = 27
temp = 27
method = modified trap
Model "nmos0p18": Oxide thickness thinner than recommended for a level 1 MOSFET.
Instance "m1": Length shorter than recommended for a level 1 MOSFET.
Instance "m1": Width narrower than recommended for a level 1 MOSFET.
Model "pmos0p18": Oxide thickness thinner than recommended for a level 1 MOSFET.
Instance "m2": Length shorter than recommended for a level 1 MOSFET.
Instance "m2": Width narrower than recommended for a level 1 MOSFET.
Direct Newton iteration for .op point succeeded.

tphl=2.78965e-10 FROM 5e-13 TO 2.79465e-10
tplh=8.9132e-13 FROM 5e-13 TO 1.39132e-12

Total elapsed time: 0.032 seconds.

