LTspice 24.0.12 for Windows
Circuit: part_a.end
Start Time: Tue Dec 10 21:33:26 2024
solver = Normal
Maximum thread count: 8
tnom = 27
temp = 27
method = modified trap
Model "nmos0p18": Oxide thickness thinner than recommended for a level 1 MOSFET.
Instance "m1": Length shorter than recommended for a level 1 MOSFET.
Instance "m1": Width narrower than recommended for a level 1 MOSFET.
Model "pmos0p18": Oxide thickness thinner than recommended for a level 1 MOSFET.
Instance "m2": Length shorter than recommended for a level 1 MOSFET.
Instance "m2": Width narrower than recommended for a level 1 MOSFET.
Direct Newton iteration for .op point succeeded.

tphl=1.08725e-09 FROM 5e-11 TO 1.13725e-09
tplh=-1.48759e-11 FROM 5e-11 TO 3.51241e-11

Total elapsed time: 0.156 seconds.

